# generated using pymatgen
data_CaCo2(SO4)3
_symmetry_space_group_name_H-M   'P 1'
_cell_length_a   8.81724595
_cell_length_b   8.75453989
_cell_length_c   8.79730929
_cell_angle_alpha   58.79891180
_cell_angle_beta   58.52666650
_cell_angle_gamma   58.71817142
_symmetry_Int_Tables_number   1
_chemical_formula_structural   CaCo2(SO4)3
_chemical_formula_sum   'Ca2 Co4 S6 O24'
_cell_volume   465.70008051
_cell_formula_units_Z   2
loop_
 _symmetry_equiv_pos_site_id
 _symmetry_equiv_pos_as_xyz
  1  'x, y, z'
loop_
 _atom_site_type_symbol
 _atom_site_label
 _atom_site_symmetry_multiplicity
 _atom_site_fract_x
 _atom_site_fract_y
 _atom_site_fract_z
 _atom_site_occupancy
  Ca  Ca0  1  0.49807628  0.49722608  0.49770532  1
  Ca  Ca1  1  0.99773305  0.99736944  0.99786381  1
  Co  Co2  1  0.64471017  0.64652568  0.64516858  1
  Co  Co3  1  0.14503578  0.14683324  0.14456865  1
  Co  Co4  1  0.84970359  0.84912683  0.85072818  1
  Co  Co5  1  0.35047606  0.34915338  0.34986515  1
  S  S6  1  0.95247976  0.24791491  0.54313384  1
  S  S7  1  0.45204055  0.04332613  0.74804399  1
  S  S8  1  0.54292932  0.95182961  0.24710066  1
  S  S9  1  0.74752329  0.45110725  0.04399844  1
  S  S10  1  0.24759893  0.54400567  0.95095551  1
  S  S11  1  0.04272632  0.74714691  0.45210888  1
  O  O12  1  0.40742559  0.56463723  0.76754371  1
  O  O13  1  0.90638483  0.26743057  0.06362523  1
  O  O14  1  0.76927212  0.40783066  0.56266308  1
  O  O15  1  0.06381682  0.90664193  0.26906040  1
  O  O16  1  0.56230115  0.76840464  0.40581938  1
  O  O17  1  0.26824202  0.06326903  0.90746248  1
  O  O18  1  0.72657612  0.93227329  0.08732144  1
  O  O19  1  0.22581801  0.58707227  0.43333173  1
  O  O20  1  0.08860405  0.72750536  0.93168793  1
  O  O21  1  0.43335393  0.22651511  0.58898600  1
  O  O22  1  0.93211983  0.08832791  0.72611696  1
  O  O23  1  0.58763824  0.43076381  0.22744943  1
  O  O24  1  0.98726217  0.19465752  0.39341121  1
  O  O25  1  0.48530138  0.89407925  0.69404369  1
  O  O26  1  0.39398494  0.98773198  0.19415290  1
  O  O27  1  0.69616074  0.48686605  0.89370840  1
  O  O28  1  0.19533447  0.39492159  0.98183661  1
  O  O29  1  0.89431796  0.69438725  0.48441496  1
  O  O30  1  0.10122071  0.30082479  0.50972808  1
  O  O31  1  0.60076861  0.00732349  0.80132484  1
  O  O32  1  0.50976904  0.10099045  0.30109804  1
  O  O33  1  0.80000151  0.60019714  0.01259129  1
  O  O34  1  0.29885946  0.50771452  0.10152047  1
  O  O35  1  0.00683319  0.80046902  0.60226076  1
