# generated using pymatgen
data_Ca2V2(PO4)3
_symmetry_space_group_name_H-M   'P 1'
_cell_length_a   8.81723601
_cell_length_b   8.80172566
_cell_length_c   8.80097935
_cell_angle_alpha   60.68257615
_cell_angle_beta   60.50813028
_cell_angle_gamma   60.64643792
_symmetry_Int_Tables_number   1
_chemical_formula_structural   Ca2V2(PO4)3
_chemical_formula_sum   'Ca4 V4 P6 O24'
_cell_volume   489.64243170
_cell_formula_units_Z   2
loop_
 _symmetry_equiv_pos_site_id
 _symmetry_equiv_pos_as_xyz
  1  'x, y, z'
loop_
 _atom_site_type_symbol
 _atom_site_label
 _atom_site_symmetry_multiplicity
 _atom_site_fract_x
 _atom_site_fract_y
 _atom_site_fract_z
 _atom_site_occupancy
  Ca  Ca0  1  0.24524008  0.88531923  0.59104528  1
  Ca  Ca1  1  0.96479539  0.00545004  0.02186302  1
  Ca  Ca2  1  0.40902578  0.74168526  0.11185051  1
  Ca  Ca3  1  0.15242073  0.40494982  0.73933517  1
  V  V4  1  0.64574610  0.62981533  0.63155327  1
  V  V5  1  0.14145629  0.15037222  0.15054417  1
  V  V6  1  0.84231203  0.85686771  0.85685273  1
  V  V7  1  0.35529069  0.34902748  0.35254110  1
  P  P8  1  0.24560877  0.55685044  0.95199701  1
  P  P9  1  0.03832511  0.75150528  0.44904941  1
  P  P10  1  0.96047187  0.25456346  0.55574590  1
  P  P11  1  0.44806371  0.03163039  0.74218356  1
  P  P12  1  0.53776528  0.94879397  0.24876730  1
  P  P13  1  0.74793934  0.45546865  0.03094618  1
  O  O14  1  0.56134821  0.77033070  0.41320363  1
  O  O15  1  0.25961399  0.06101193  0.90818081  1
  O  O16  1  0.39719917  0.57859491  0.76160028  1
  O  O17  1  0.92496458  0.28561780  0.03310166  1
  O  O18  1  0.77912015  0.40962145  0.56105135  1
  O  O19  1  0.06747311  0.91166978  0.26581855  1
  O  O20  1  0.93940115  0.08470351  0.73607089  1
  O  O21  1  0.58703915  0.41984290  0.20765677  1
  O  O22  1  0.71391372  0.94659140  0.08464246  1
  O  O23  1  0.22664962  0.59164103  0.41884468  1
  O  O24  1  0.08582653  0.74529329  0.92300935  1
  O  O25  1  0.43047753  0.21690615  0.58862380  1
  O  O26  1  0.18880858  0.39982555  0.99077601  1
  O  O27  1  0.87585241  0.70809005  0.48895053  1
  O  O28  1  0.04126783  0.17896781  0.39971995  1
  O  O29  1  0.45987083  0.87455201  0.70104195  1
  O  O30  1  0.38122892  0.95570029  0.20963833  1
  O  O31  1  0.70531436  0.50013682  0.86232905  1
  O  O32  1  0.29556889  0.53408520  0.10633353  1
  O  O33  1  0.02613788  0.77899501  0.61591785  1
  O  O34  1  0.10952404  0.30407176  0.55055554  1
  O  O35  1  0.59977515  0.96867071  0.81378475  1
  O  O36  1  0.46567338  0.11041524  0.31227320  1
  O  O37  1  0.77360343  0.62257313  0.01459792  1
